example/data/d_ei_528.m
% Reduced US Eastern Interconnection (EI) model

% Copyright (C) NSF-DOE Center for Ultra-Wide-Area Resilient Electric Energy Transmission Networks (CURENT)

% Reference:
% D. Osipov and M. Arrieta-Paternina, ``Reduced Eastern Interconnection System Model'', [Online]. Available: https://curent.utk.edu/2016SiteVisit/EI_LTB_Report.pdf


Bus.con = [ ...
    20001         500     1.03827  -0.0992342   1125    111;
    20002         500     1.01677   -0.368559   1125    111;
    20003         500     1.03506   -0.165743   1125    111;
    20004         500     1.03983  -0.0995414   1125    111;
    20005         500     1.05304   0.0764402   1125    111;
    20006         500     1.05324    0.318163   1125    111;
    20007         500     1.05922   0.0379295   1125    111;
    20008         500     1.05259    0.107554   1125    111;
    20009         500     1.05506  -0.0251886   1125    111;
    20010          22        1.01           0   1125    111;
    20011         230      1.0214  -0.0517804   1126    119;
    20012         115     0.99346   0.0992761   1126    116;
    20013         115     1.02444   0.0336761   1126    117;
    20014         230     1.03353   0.0319552   1126    117;
    20015         230      1.0306    0.335623   1126    118;
    20016          22     1.05352    0.435221   1126    118;
    20017         230     0.99665  -0.0917258   1127   1114;
    20018          19     0.99169    0.058205   1127   1120;
    20019         230     0.97042   -0.461699   1128   1126;
    20020         230     1.00776  -0.0338123   1129   1132;
    20021         230      1.0244   -0.173165   1129   1132;
    20022         230      0.9866  -0.0552467   1129   1132;
    20023         230     1.01255   -0.199669   1129   1132;
    20024          24     1.05907    0.347919   1129   1133;
    20025         230     1.03482   -0.319744   1130   1141;
    20026          20           1   -0.077168   1130   1144;
    20027          69     1.02896   -0.589036   1130   1142;
    20028         230     0.99816   -0.484821   1130   1141;
    20029         230     0.97485   -0.423572   1131   1151;
    20030         138     1.00298   -0.450421   1131   1152;
    20031          24     1.05872   -0.477121   1131   1150;
    20032         230     1.00473   -0.150683   1132   1159;
    20033         230     1.02552   0.0786777   1140   1101;
    20034         115      1.0321   -0.158347   1140   1101;
    20035         230     1.02514   0.0741206   1140   1101;
    20036         115     0.97923   -0.160544   1140   1101;
    20037         115     0.98264   -0.145557   1140   1101;
    20038         230     1.01233  -0.0957784   1140   1101;
    20039         230     0.99525   -0.226795   1140   1101;
    20040         115     1.01221    0.222995   1141   1106;
    20041         115     1.00557    0.266074   1141   1106;
    20042          24     1.01069    0.275786   1140   1101;
    20043         230     1.00941    0.480308   1143   1115;
    20044         230     1.00182    0.387755   1143   1115;
    20045         115     1.00826    0.366156   1143   1115;
    20046          22     1.02032    0.497326   1143   1115;
    20047         230     1.02349   -0.187319   1145   1182;
    20048         230     0.98652   -0.294861   1145   1192;
    20049         115     0.99935   0.0762779   1145   1188;
    20050         115     0.99981   0.0886069   1145   1193;
    20051         230     1.01291    0.163171   1145   1194;
    20052         500     1.04784  -0.0308347   1145   1196;
    20053         500     1.03022  0.00666367   1145   1196;
    20054         500     1.04243  -0.0767718   1145   1196;
    20055         500     1.04712  -0.0160169   1145   1196;
    20056         500     1.04149    0.186031   1145   1196;
    20057         500     1.04063  -0.0713107   1145   1196;
    20058         500     1.04927    0.603814   1146   1941;
    20059         230     1.02933    0.515708   1146   1944;
    20060         230     0.99477    0.457919   1146   1943;
    20061         230     1.01669    0.248252   1146   1940;
    20062         230     1.02567     0.41842   1146   1941;
    20063          25     0.98205    0.626863   1146   1940;
    20064         500     1.04035    0.380278   1146   1940;
    20065         230     1.02605    0.245381   1146   1940;
    20066         230     1.03103     0.46927   1146   1940;
    20067         230     1.02473    0.399186   1146   1940;
    20068         230     0.99882    0.378749   1146   1940;
    20069         230     1.03354    0.418614   1146   1940;
    20070         230     1.00512    0.252005   1146   1940;
    20071         115     1.02311    0.455995   1146   1940;
    20072         115     1.01196   0.0517438   1146   1940;
    20073         115     0.99294     0.13557   1146   1940;
    20074         230      1.0301      0.3986   1146   1940;
    20075         115     1.01599     0.50683   1146   1941;
    20076         115     0.99647    0.399035   1146   1941;
    20077         115     1.01329    0.327021   1146   1941;
    20078         230     1.03008    0.529053   1146   1941;
    20079         115     1.02022    0.185333   1146   1940;
    20080         230     1.04267    0.524272   1146   1941;
    20081         115     1.01616    0.436104   1146   1941;
    20082         115     1.01636    0.440664   1146   1941;
    20083         115     1.01743    0.372722   1146   1941;
    20084         115     1.01925    0.367542   1146   1941;
    20085         230      1.0299    0.494975   1146   1941;
    20086         115     1.00694    0.380265   1146   1941;
    20087         230     1.03409    0.364624   1146   1942;
    20088         115     0.99932    0.333925   1146   1942;
    20089         230      1.0251    0.271654   1146   1942;
    20090         230     1.03755    0.712501   1146   1143;
    20091         115     1.00441    0.332485   1146   1940;
    20092         115     1.00735    0.365577   1146   1940;
    20093         115     1.01155    0.328581   1146   1941;
    20094         115     1.02747     0.42789   1146   1941;
    20095         115      1.0028     0.35157   1146   1941;
    20096         115     0.99386    0.236009   1146   1143;
    20097         115     1.01846     0.51694   1150   1950;
    20098         115     1.02177    0.478646   1150   1950;
    20099         115     1.01162    0.410676   1150   1950;
    20100         115     0.98906    0.110952   1150   1950;
    20101         161     0.99432     0.41627   1149   1146;
    20102          69     1.00231    0.374846   1149   1147;
    20103         161      1.0369    0.532025   1147   1166;
    20104         500     1.02639    0.401269   1147   1165;
    20105         161     1.04111     0.48221   1147   1166;
    20106         500     1.04747    0.500766   1147   1167;
    20107         500     1.03811    0.262566   1147   1167;
    20108         161     1.05518    0.382196   1147   1165;
    20109         161     1.02784    0.521763   1147   1166;
    20110         161     1.03384    0.215328   1147   1166;
    20111         161     1.05222    0.254603   1147   1167;
    20112         161     1.00268    0.161986   1147   1167;
    20113         161     1.04548    0.662305   1147   1166;
    20114         161     0.99674    0.380442   1147   1165;
    20115        20.7     1.11442    0.698669   1147   1166;
    20116         161     1.05299    0.413898   1147   1165;
    20117         161     1.05401    0.596972   1147   1166;
    20118         500     1.04836    0.564968   1147   1166;
    20119         161     1.04826    0.412311   1147   1166;
    20120         500     1.05502     0.58231   1147   1167;
    20121         161      1.0403    0.445151   1147   1167;
    20122         161     1.04319    0.356201   1147   1166;
    20123         161     1.02257    0.488078   1147   1167;
    20124         161     0.99214    0.290861   1147   1167;
    20125         161     1.03021    0.265074   1147   1167;
    20126         161      1.0228    0.249556   1147   1167;
    20127         161     1.04832    0.392621   1147   1166;
    20128         161     1.02765    0.262154   1147   1166;
    20129         161     1.00658    0.365133   1147   1167;
    20130         161     1.04873    0.366453   1147   1166;
    20131         500     1.04848  -0.0875422   1201   1201;
    20132         138     0.99948    0.147671   1201   1201;
    20133         138      0.9972    0.145615   1201   1201;
    20134         138     0.97705   0.0927939   1201   1201;
    20135         138     0.98023   0.0939546   1201   1201;
    20136         138     0.99991   -0.131666   1201   1201;
    20137         230     1.01503   -0.186588   1201   1201;
    20138         138     1.01344  -0.0432144   1202   1239;
    20139         345     0.99917  -0.0620499   1202   1233;
    20140         138     0.97228   -0.213133   1202   1241;
    20141         138     0.97406   -0.118009   1202   1242;
    20142         138     0.96082   -0.231239   1202   1244;
    20143          18     1.01559     0.33381   1202   1230;
    20144         345     1.00785   0.0378684   1202   1239;
    20145         345     1.01432    0.250753   1202   1238;
    20146         138     0.97205   0.0374443   1202   1242;
    20147         765     1.00724    0.317245   1205   1250;
    20148         345      1.0134    0.468082   1205   1251;
    20149         345     0.97405   0.0164026   1205   1251;
    20150         345     1.02019    0.578378   1205   1252;
    20151         765     0.96834    0.304061   1205   1252;
    20152         345     1.01176    0.159977   1205   1252;
    20153         345       1.017    0.430049   1205   1252;
    20154         345      0.9778    0.137958   1205   1253;
    20155         138     1.01501    0.259176   1205   1250;
    20156         138     0.99285    0.160881   1205   1250;
    20157         138     1.00953    0.269009   1205   1250;
    20158         138     0.99647    0.330508   1205   1251;
    20159         138     0.99835   0.0620657   1205   1251;
    20160         138     0.99134 -0.00681202   1205   1251;
    20161         138     0.99713    0.274568   1205   1251;
    20162         138     0.99432    0.221967   1205   1252;
    20163         138     0.96724    0.036151   1205   1253;
    20164         138     0.96897   0.0695776   1205   1253;
    20165         138     0.97474    0.131837   1205   1253;
    20166          69     1.01943   0.0531592   1205   1254;
    20167          69     0.99784     0.34299   1205   1254;
    20168          69     1.00518  0.00801979   1205   1253;
    20169          69     0.96358    0.323392   1205   1253;
    20170         345     1.04909    0.846741   1208   1280;
    20171         138     1.00466    0.277389   1208   1280;
    20172         138     1.00926    0.407164   1208   1280;
    20173         138     0.98353    0.359107   1208   1284;
    20174          69     0.98837   -0.198521   1209   1209;
    20175          69     0.97052   -0.248893   1209   1209;
    20176          69     0.97753    0.148055   1211   1211;
    20177         138     0.97433    0.405058   1211   1211;
    20178         138     0.97488    0.209141   1211   1211;
    20179         345     1.00378    0.366226   1211   1211;
    20180         138     1.02516    0.371317   1211   1211;
    20181         138      0.9992    0.445492   1211   1211;
    20182         138     1.00433    0.463655   1211   1211;
    20183          69     0.99458    0.338453   1211   1211;
    20184          69     0.96577    0.354885   1211   1211;
    20185         138     1.01056    0.482376   1211   1211;
    20186         138     0.99003    0.367683   1211   1211;
    20187          69     0.98138    0.231492   1211   1211;
    20188         345     0.99781    0.514685   1211   1211;
    20189         138     1.00018    0.444658   1211   1211;
    20190          69     0.96761    0.259691   1211   1211;
    20191        20.9     1.02795    0.713358   1211   1211;
    20192         345     1.01927    0.589815   1211   1211;
    20193          69     0.98063    0.270727   1211   1211;
    20194         161     1.02672    0.531496   1214   1214;
    20195         161     1.02334    0.493698   1214   1214;
    20196         345     1.01905    0.761445   1216   1216;
    20197          22     1.00066    0.872912   1216   1216;
    20198         345     1.01105    0.135727   1217   1217;
    20199         345     1.00211     0.04811   1217   1217;
    20200         138      0.9865   0.0511399   1217   1217;
...
   ];

SW.con = [ ...
    20010     29988.8          22        1.01           0    0.417754   -0.208877         1.1         0.9    0.893991 1 1  1;
   ];

PV.con = [ ...
 20016     41575.4          22    0.800045     1.05352    0.400022   -0.200011         1.1         0.9 1  1;
 20018      4254.2          19    0.756546     0.99169    0.378273   -0.189138         1.1         0.9 1  1;
 20024       10332          24    0.870999     1.05907    0.435499    -0.21775         1.1         0.9 1  1;
 20026       16896          20    0.687721           1    0.343861    -0.17193         1.1         0.9 1  1;
 20031     15673.4          24    0.739295     1.05872    0.369647   -0.184823         1.1         0.9 1  1;
 20042     15829.8          24    0.793698     1.01069    0.396849   -0.198424         1.1         0.9 1  1;
 20046     14831.7          22    0.793821     1.02032    0.396911   -0.198455         1.1         0.9 1  1;
 20063     74128.6          25    0.769154     0.98205    0.384577   -0.146484         1.1         0.9 1  1;
 20115     44549.7        20.7    0.870271     1.11442    0.435136   -0.217568         1.1         0.9 1  1;
 20143     47754.5          18    0.801804     1.01559    0.400902   -0.200451         1.1         0.9 1  1;
 20153     48029.8         345    0.789119       1.017     0.39456    -0.19728         1.1         0.9 1  1;
 20191     10444.8        20.9    0.772504     1.02795    0.386252   -0.193126         1.1         0.9 1  1;
 20197       26637          22    0.777881     1.00066     0.38894    -0.19447         1.1         0.9 1  1;
 20212     4248.39          22    0.784434      0.9953    0.392217    -0.19611         1.1         0.9 1  1;
 20218     16042.8          25    0.826967     1.01623    0.413484   -0.206741         1.1         0.9 1  1;
 20239      9426.4          22    0.772157     1.01703    0.386078   -0.193039         1.1         0.9 1  1;
 20241     5389.31          22    0.835766     1.07004    0.417883    -0.20894         1.1         0.9 1  1;
 20252     36427.9          25    0.725277     1.01334    0.362639   -0.181319         1.1         0.9 1  1;
 20253     6366.25          22    0.713112        1.03    0.356557   -0.178278         1.1         0.9 1  1;
 20257     12717.8          24    0.767138        1.01    0.383569   -0.191784         1.1         0.9 1  1;
 20261     35832.5          22    0.752672     1.00884    0.376336   -0.188168         1.1         0.9 1  1;
 20272     24166.8          21    0.745908     1.03279    0.372954   -0.186477         1.1         0.9 1  1;
 20277     7562.15          22    0.613664     1.02658    0.306832   -0.153415         1.1         0.9 1  1;
 20283     2344.59        13.8    0.850746      1.0428    0.425375   -0.212685         1.1         0.9 1  1;
 20302      9709.1          18    0.789644     0.98761    0.394821   -0.197411         1.1         0.9 1  1;
 20306     8793.75          25    0.825202     1.01485    0.412601     -0.2063         1.1         0.9 1  1;
 20312     6926.08          25    0.774132        1.04    0.387066   -0.193532         1.1         0.9 1  1;
 20319      3147.9        34.5    0.454223     1.02808     0.22711   -0.113555         1.1         0.9 1  1;
 20331      1455.1          18     0.74544        1.01    0.372717   -0.186358         1.1         0.9 1  1;
 20332       19244         230    0.775823     0.97063    0.387912   -0.193956         1.1         0.9 1  1;
 20333     13985.4          26    0.815598     1.03446    0.407799   -0.203899         1.1         0.9 1  1;
 20352        2891          22    0.805673     1.01782    0.402836   -0.201418         1.1         0.9 1  1;
 20356        8152          25    0.766121     1.02501    0.383061    -0.19153         1.1         0.9 1  1;
 20361     6268.89          26    0.918614     1.01133    0.459306   -0.229653         1.1         0.9 1  1;
 20377      7695.4          18    0.820429      1.0096    0.410214   -0.205107         1.1         0.9 1  1;
 20399      8001.5        13.8    0.598863     0.99483    0.299431   -0.149714         1.1         0.9 1  1;
 20405     1696.78          24     0.75381     1.01618    0.376908   -0.188451         1.1         0.9 1  1;
 20408     8401.56          24    0.779176     1.01465    0.389588   -0.194794         1.1         0.9 1  1;
 20435     51480.4          21     0.71502     1.02977     0.35751   -0.178755         1.1         0.9 1  1;
 20444     28918.7          24    0.816163     0.99436    0.408081   -0.204041         1.1         0.9 1  1;
   ];

PQ.con = [ ...
 20001 100         500     4.73189     2.59901         1.1         0.9 0 1;
 20002 100         500     13.7947     7.71158         1.1         0.9 0 1;
 20003 100         500     12.1506     8.34956         1.1         0.9 0 1;
 20004 100         500     1.73232     0.90772         1.1         0.9 0 1;
 20005 100         500     4.24552     2.70812         1.1         0.9 0 1;
 20006 100         500     3.66107     1.93778         1.1         0.9 0 1;
 20007 100         500     8.90325     9.75967         1.1         0.9 0 1;
 20008 100         500     3.09355     3.46566         1.1         0.9 0 1;
 20009 100         500     8.14133     5.80335         1.1         0.9 0 1;
 20010 100          22     98.1116     91.8906         1.1         0.9 0 1;
 20011 100         230     5.37058     1.64399         1.1         0.9 0 1;
 20012 100         115     2.16987     0.69392         1.1         0.9 0 1;
 20013 100         115     2.43729      0.5445         1.1         0.9 0 1;
 20014 100         230      4.3754     1.16438         1.1         0.9 0 1;
 20015 100         230     7.46523     2.73781         1.1         0.9 0 1;
 20016 100          22     131.362      60.514         1.1         0.9 0 1;
 20017 100         230     5.75537     2.46266         1.1         0.9 0 1;
 20018 100          19     18.7562      8.3804         1.1         0.9 0 1;
 20019 100         230     6.98084     4.27722         1.1         0.9 0 1;
 20020 100         230     11.6944     6.52943         1.1         0.9 0 1;
 20021 100         230     11.0604     4.44568         1.1         0.9 0 1;
 20022 100         230      10.923     3.57081         1.1         0.9 0 1;
 20023 100         230      10.503     4.69172         1.1         0.9 0 1;
 20024 100          24      30.859     20.6988         1.1         0.9 0 1;
 20025 100         230     15.6702     7.80728         1.1         0.9 0 1;
 20026 100          20     65.8847     33.0648         1.1         0.9 0 1;
 20027 100          69     5.03149     1.59039         1.1         0.9 0 1;
 20028 100         230     29.4745     10.9601         1.1         0.9 0 1;
 20029 100         230     7.98834     3.46488         1.1         0.9 0 1;
 20030 100         138      6.6229     2.37834         1.1         0.9 0 1;
 20031 100          24     160.366     73.2997         1.1         0.9 0 1;
 20032 100         230      13.365     11.4445         1.1         0.9 0 1;
 20033 100         230     19.0509     7.75466         1.1         0.9 0 1;
 20034 100         115     10.2583     2.35566         1.1         0.9 0 1;
 20035 100         230     3.11463     1.18009         1.1         0.9 0 1;
 20036 100         115     10.8391     1.42402         1.1         0.9 0 1;
 20037 100         115     6.60355     1.14845         1.1         0.9 0 1;
 20038 100         230      16.322     3.33027         1.1         0.9 0 1;
 20039 100         230     7.54249      1.6119         1.1         0.9 0 1;
 20040 100         115     2.22415     0.62729         1.1         0.9 0 1;
 20041 100         115      8.1983     2.65013         1.1         0.9 0 1;
 20042 100          24     79.4507      33.367         1.1         0.9 0 1;
 20043 100         230      4.9166     2.40782         1.1         0.9 0 1;
 20044 100         230     11.2649      4.0358         1.1         0.9 0 1;
 20045 100         115     7.22914      2.2408         1.1         0.9 0 1;
 20046 100          22     80.4871     43.7121         1.1         0.9 0 1;
 20047 100         230     22.7461     7.02518         1.1         0.9 0 1;
 20048 100         230     8.62762     1.66961         1.1         0.9 0 1;
 20049 100         115      2.2997     0.48653         1.1         0.9 0 1;
 20050 100         115     3.16198      1.2412         1.1         0.9 0 1;
 20051 100         230     11.6563     4.31344         1.1         0.9 0 1;
 20052 100         500     13.8142     6.31992         1.1         0.9 0 1;
 20053 100         500     15.8241     7.21767         1.1         0.9 0 1;
 20054 100         500     18.3393     7.10794         1.1         0.9 0 1;
 20055 100         500     8.09679     3.13549         1.1         0.9 0 1;
 20056 100         500     6.06869     2.60593         1.1         0.9 0 1;
 20057 100         500     20.6053     10.6103         1.1         0.9 0 1;
 20058 100         500     13.0804     6.32519         1.1         0.9 0 1;
 20059 100         230     16.6359     10.4087         1.1         0.9 0 1;
 20060 100         230     8.07748     3.09235         1.1         0.9 0 1;
 20061 100         230     2.56912     1.72967         1.1         0.9 0 1;
 20062 100         230     4.68248     1.75213         1.1         0.9 0 1;
 20063 100          25     254.976     185.872         1.1         0.9 0 1;
 20064 100         500     7.52185     5.23571         1.1         0.9 0 1;
 20065 100         230     14.2054     5.94792         1.1         0.9 0 1;
 20066 100         230     8.56218     5.29362         1.1         0.9 0 1;
 20067 100         230     15.0554     8.38972         1.1         0.9 0 1;
 20069 100         230     15.3951     8.75884         1.1         0.9 0 1;
 20070 100         230     5.54401     2.42016         1.1         0.9 0 1;
 20071 100         115     1.88726     0.62113         1.1         0.9 0 1;
 20072 100         115      6.7777     1.90574         1.1         0.9 0 1;
 20073 100         115      3.6438     0.85827         1.1         0.9 0 1;
 20074 100         230     2.60672     1.39559         1.1         0.9 0 1;
 20075 100         115     10.1163      3.1182         1.1         0.9 0 1;
 20076 100         115     8.54986     2.11356         1.1         0.9 0 1;
 20077 100         115     5.91358     1.07018         1.1         0.9 0 1;
 20078 100         230     5.26018     2.28322         1.1         0.9 0 1;
 20079 100         115     2.37277     0.76031         1.1         0.9 0 1;
 20080 100         230     17.1921      6.9744         1.1         0.9 0 1;
 20081 100         115     4.35584     1.18039         1.1         0.9 0 1;
 20082 100         115     3.95849     0.73333         1.1         0.9 0 1;
 20083 100         115     3.69252     0.86162         1.1         0.9 0 1;
 20084 100         115     2.68668     0.71584         1.1         0.9 0 1;
 20085 100         230     7.45074     2.78308         1.1         0.9 0 1;
 20086 100         115     3.08851     0.64351         1.1         0.9 0 1;
 20087 100         230     13.1821     4.88177         1.1         0.9 0 1;
 20088 100         115     8.62698     2.93334         1.1         0.9 0 1;
 20089 100         230      8.8037     3.61236         1.1         0.9 0 1;
 20090 100         230     10.7762      5.7575         1.1         0.9 0 1;
 20091 100         115     2.76014     0.75731         1.1         0.9 0 1;
 20092 100         115     4.19035     1.31148         1.1         0.9 0 1;
 20093 100         115     3.04413     0.61945         1.1         0.9 0 1;
 20094 100         115     3.35636     0.53653         1.1         0.9 0 1;
 20095 100         115     1.63164     0.15785         1.1         0.9 0 1;
 20096 100         115     2.57822     0.48975         1.1         0.9 0 1;
 20097 100         115     2.02098     0.29613         1.1         0.9 0 1;
 20098 100         115      2.9798     0.77424         1.1         0.9 0 1;
 20099 100         115     1.60565     0.52393         1.1         0.9 0 1;
 20100 100         115      1.6825      0.1346         1.1         0.9 0 1;
 20101 100         161     3.49847     0.94742         1.1         0.9 0 1;
 20102 100          69     1.49466     0.34175         1.1         0.9 0 1;
 20103 100         161       8.275     2.86849         1.1         0.9 0 1;
 20104 100         500     19.3358     8.25985         1.1         0.9 0 1;
 20105 100         161     6.36579      3.5227         1.1         0.9 0 1;
 20106 100         500      16.596      10.905         1.1         0.9 0 1;
 20107 100         500     11.5615     5.15756         1.1         0.9 0 1;
 20108 100         161     18.9205     5.95329         1.1         0.9 0 1;
 20109 100         161     3.65487     1.48338         1.1         0.9 0 1;
 20110 100         161     3.08066     0.93778         1.1         0.9 0 1;
 20111 100         161     2.35076     0.93299         1.1         0.9 0 1;
 20112 100         161     5.88917     2.52885         1.1         0.9 0 1;
 20113 100         161     2.99955     1.11876         1.1         0.9 0 1;
 20114 100         161     8.48654     2.40936         1.1         0.9 0 1;
 20115 100        20.7     111.914     70.1721         1.1         0.9 0 1;
 20116 100         161     8.94318     2.83292         1.1         0.9 0 1;
 20117 100         161     4.53882     2.13333         1.1         0.9 0 1;
 20118 100         500     12.2332     8.33181         1.1         0.9 0 1;
 20119 100         161     9.50737     4.13046         1.1         0.9 0 1;
 20120 100         500     10.3386     5.34138         1.1         0.9 0 1;
 20121 100         161     12.6974     4.85607         1.1         0.9 0 1;
 20122 100         161     15.0105     6.35043         1.1         0.9 0 1;
 20123 100         161     11.9263     5.53595         1.1         0.9 0 1;
 20124 100         161     15.1628     5.47852         1.1         0.9 0 1;
 20125 100         161     5.37669     1.73708         1.1         0.9 0 1;
 20126 100         161     6.16577     2.33704         1.1         0.9 0 1;
 20127 100         161     4.94085     1.98554         1.1         0.9 0 1;
 20128 100         161     13.0642     4.88791         1.1         0.9 0 1;
 20129 100         161     7.25944     2.64097         1.1         0.9 0 1;
 20130 100         161     8.21858     3.64896         1.1         0.9 0 1;
 20131 100         500     9.15181     8.33119         1.1         0.9 0 1;
 20132 100         138     13.2765     2.88246         1.1         0.9 0 1;
 20133 100         138     5.82771     1.63548         1.1         0.9 0 1;
 20134 100         138     2.77815     0.70575         1.1         0.9 0 1;
 20135 100         138     5.88226     1.40412         1.1         0.9 0 1;
 20136 100         138     9.39497     2.23993         1.1         0.9 0 1;
 20137 100         230     24.6387     10.9211         1.1         0.9 0 1;
 20138 100         138     6.17522         2.3         1.1         0.9 0 1;
 20139 100         345     20.2068     9.64374         1.1         0.9 0 1;
 20140 100         138     7.71228      0.8935         1.1         0.9 0 1;
 20141 100         138     4.52531     1.47796         1.1         0.9 0 1;
 20142 100         138     7.65663     1.59645         1.1         0.9 0 1;
 20143 100          18     317.133     215.547         1.1         0.9 0 1;
 20144 100         345     19.5309     10.8425         1.1         0.9 0 1;
 20145 100         345     19.2332     11.7462         1.1         0.9 0 1;
 20146 100         138     3.60647     1.23387         1.1         0.9 0 1;
 20147 100         765     10.6306     6.25555         1.1         0.9 0 1;
 20148 100         345     3.69862     2.46438         1.1         0.9 0 1;
 20149 100         345     12.7333      4.5082         1.1         0.9 0 1;
 20150 100         345     10.7821     4.43161         1.1         0.9 0 1;
 20151 100         765      9.2235     3.88403         1.1         0.9 0 1;
 20152 100         345     10.5828     4.60365         1.1         0.9 0 1;
 20153 100         345     213.738     92.0379         1.1         0.9 0 1;
 20154 100         345     13.0856     4.69982         1.1         0.9 0 1;
 20155 100         138     3.09781     0.90979         1.1         0.9 0 1;
 20156 100         138      1.2371     0.35894         1.1         0.9 0 1;
 20157 100         138     5.11026     1.77016         1.1         0.9 0 1;
 20158 100         138     4.49698     1.09835         1.1         0.9 0 1;
 20159 100         138      6.8638     1.60299         1.1         0.9 0 1;
 20160 100         138     3.27267     0.42108         1.1         0.9 0 1;
 20161 100         138     2.39647      0.4541         1.1         0.9 0 1;
 20162 100         138     4.27487     0.54887         1.1         0.9 0 1;
 20163 100         138     13.4727     2.88084         1.1         0.9 0 1;
 20164 100         138     13.1793     3.95019         1.1         0.9 0 1;
 20165 100         138     4.40969     0.71394         1.1         0.9 0 1;
 20166 100          69     1.43134      0.3129         1.1         0.9 0 1;
 20167 100          69     1.47133     0.21685         1.1         0.9 0 1;
 20168 100          69     1.50014     0.19522         1.1         0.9 0 1;
 20169 100          69     1.35858     0.38851         1.1         0.9 0 1;
 20170 100         345     6.08933     5.41348         1.1         0.9 0 1;
 20171 100         138     5.91655     1.33423         1.1         0.9 0 1;
 20172 100         138     6.40575     2.30451         1.1         0.9 0 1;
 20173 100         138     13.3072     3.87659         1.1         0.9 0 1;
 20174 100          69     3.65218     0.42025         1.1         0.9 0 1;
 20175 100          69     3.01119     0.37651         1.1         0.9 0 1;
 20176 100          69     2.63464     0.66088         1.1         0.9 0 1;
 20177 100         138     11.4593     3.92724         1.1         0.9 0 1;
 20178 100         138     1.14971     0.39608         1.1         0.9 0 1;
 20179 100         345     1.16046      0.6099         1.1         0.9 0 1;
 20180 100         138     5.15051     2.38602         1.1         0.9 0 1;
 20181 100         138     1.78549     0.65588         1.1         0.9 0 1;
 20182 100         138     1.88619     0.59489         1.1         0.9 0 1;
 20183 100          69     2.70476     1.04334         1.1         0.9 0 1;
 20184 100          69     2.20789     0.42434         1.1         0.9 0 1;
 20185 100         138     5.34792     2.30702         1.1         0.9 0 1;
 20186 100         138     3.23483      1.5938         1.1         0.9 0 1;
 20187 100          69     6.46079     2.13524         1.1         0.9 0 1;
 20188 100         345     7.39504     3.95288         1.1         0.9 0 1;
 20189 100         138     10.6983     3.90331         1.1         0.9 0 1;
 20190 100          69        1.94     0.38384         1.1         0.9 0 1;
 20191 100        20.9     7.55026     4.02138         1.1         0.9 0 1;
 20192 100         345     5.37332     3.59436         1.1         0.9 0 1;
 20193 100          69     2.39443     0.59713         1.1         0.9 0 1;
 20194 100         161     7.88518     3.76092         1.1         0.9 0 1;
 20195 100         161     8.38705     4.31229         1.1         0.9 0 1;
 20196 100         345     8.67596     6.89148         1.1         0.9 0 1;
 20197 100          22     103.016     54.9457         1.1         0.9 0 1;
 20198 100         345     14.7335     7.31351         1.1         0.9 0 1;
 20199 100         345     11.1548     4.03227         1.1         0.9 0 1;
 20200 100         138      7.3093     1.24481         1.1         0.9 0 1;
 20201 100         138     2.65929      0.4805         1.1         0.9 0 1;
...
   ];

Shunt.con = [ ...
 20001 100             500 60         0.01276         4.05181 1;
 20002 100             500 60         0.13136        11.82292 1;
 20003 100             500 60         0.00273        17.52994 1;
 20004 100             500 60        -0.03326         5.83025 1;
 20005 100             500 60         0.05324         5.97112 1;
 20006 100             500 60        -0.07031         9.75365 1;
 20007 100             500 60         0.13902        22.20976 1;
 20008 100             500 60         0.06958         5.77557 1;
 20009 100             500 60         0.02577        18.51868 1;
 20010 100              22 60         3.11742        31.76497 1;
 20011 100             230 60         0.03388         0.66103 1;
 20012 100             115 60         0.03847        -0.19352 1;
 20013 100             115 60         0.00621         0.13381 1;
 20014 100             230 60        -0.05331          1.0831 1;
 20015 100             230 60         0.23769        -0.51689 1;
 20016 100              22 60        -0.26982        52.57645 1;
 20017 100             230 60        -0.00247         1.06883 1;
 20018 100              19 60         0.66662        -5.43048 1;
 20019 100             230 60         0.39417        -2.75348 1;
 20020 100             230 60        -0.26867         6.22838 1;
 20021 100             230 60        -0.11219         6.45125 1;
 20022 100             230 60         0.02612         3.06609 1;
 20023 100             230 60        -0.10496         6.55627 1;
 20024 100              24 60         0.01913        14.29649 1;
 20025 100             230 60        -0.17252        12.44105 1;
 20026 100              20 60         1.74309         1.57727 1;
 20027 100              69 60        -0.16316         3.14555 1;
 20028 100             230 60        -0.40584        13.67045 1;
 20029 100             230 60         0.02077         2.88416 1;
 20030 100             138 60        -0.05296         2.00224 1;
 20031 100              24 60         3.22688         46.2163 1;
 20032 100             230 60        -0.34209         10.7466 1;
 20033 100             230 60        -0.03109         9.43396 1;
 20034 100             115 60        -0.04217         3.66796 1;
 20035 100             230 60         0.10613         2.65056 1;
 20036 100             115 60        -0.02021         0.67355 1;
 20037 100             115 60         0.02979         1.25099 1;
 20038 100             230 60         0.01713         8.45017 1;
 20039 100             230 60         0.09332         1.44029 1;
 20040 100             115 60        -0.02486         0.52475 1;
 20041 100             115 60         -0.0387         2.33162 1;
 20042 100              24 60         1.43331        15.19721 1;
 20043 100             230 60        -0.13494         3.67729 1;
 20044 100             230 60         0.04084          3.4655 1;
 20045 100             115 60        -0.15523         2.23898 1;
 20046 100              22 60         0.89259        18.46519 1;
 20047 100             230 60        -0.00781         6.85238 1;
 20048 100             230 60         0.10443         1.95044 1;
 20049 100             115 60         0.13239        -0.61764 1;
 20050 100             115 60         0.05691         0.01365 1;
 20051 100             230 60         0.25032         2.59004 1;
 20052 100             500 60         0.25096         9.04715 1;
 20053 100             500 60         0.27121         4.12021 1;
 20054 100             500 60         0.10289        10.15288 1;
 20055 100             500 60        -0.01035         7.40859 1;
 20056 100             500 60        -0.09768        15.38831 1;
 20057 100             500 60         0.04766        12.54565 1;
 20058 100             500 60         0.08816         9.21608 1;
 20059 100             230 60         -0.2138        23.64783 1;
 20060 100             230 60        -0.05899         4.94258 1;
 20061 100             230 60         0.01304         3.03175 1;
 20062 100             230 60        -0.23198         4.97356 1;
 20063 100              25 60        12.22844         11.5884 1;
 20064 100             500 60        -0.13456        13.71018 1;
 20065 100             230 60        -0.59376        10.77835 1;
 20066 100             230 60        -0.27352        12.72475 1;
 20067 100             230 60        -0.35852        13.20728 1;
 20069 100             230 60        -0.65931        13.87195 1;
 20070 100             230 60        -0.13345         3.76368 1;
 20071 100             115 60        -0.13941         1.13283 1;
 20072 100             115 60        -0.01926         2.89674 1;
 20073 100             115 60        -0.08161         1.21783 1;
 20074 100             230 60         -0.1587         3.89465 1;
 20075 100             115 60        -0.16066         5.66309 1;
 20076 100             115 60        -0.12011         3.03965 1;
 20077 100             115 60        -0.06305         2.44318 1;
 20078 100             230 60        -0.01985         2.89829 1;
 20079 100             115 60         -0.0229         0.60189 1;
 20080 100             230 60         -0.0984         5.14121 1;
 20081 100             115 60        -0.06075         1.22924 1;
 20082 100             115 60        -0.23743         2.22792 1;
 20083 100             115 60        -0.06835         1.24089 1;
 20084 100             115 60        -0.07509          1.2747 1;
 20085 100             230 60        -0.07323         6.75113 1;
 20086 100             115 60         0.00564         0.46354 1;
 20087 100             230 60         -0.0443         7.25419 1;
 20088 100             115 60         0.01553         3.11326 1;
 20089 100             230 60          0.0194         4.60495 1;
 20090 100             230 60        -0.28655         8.53294 1;
 20091 100             115 60        -0.10854         1.29081 1;
 20092 100             115 60        -0.11932         1.61212 1;
 20093 100             115 60        -0.13371         1.73685 1;
 20094 100             115 60        -0.12502         1.71191 1;
 20095 100             115 60         0.00476         0.32659 1;
 20096 100             115 60        -0.07263         1.20328 1;
 20097 100             115 60         -0.0543         1.12923 1;
 20098 100             115 60        -0.10714          2.6047 1;
 20099 100             115 60        -0.03823         0.94158 1;
 20100 100             115 60         0.01978         0.40408 1;
 20101 100             161 60         -0.0696         1.87875 1;
 20102 100              69 60        -0.02561         0.70258 1;
 20103 100             161 60         0.05712          1.6316 1;
 20104 100             500 60         0.51471         4.03204 1;
 20105 100             161 60         0.06113         1.69704 1;
 20106 100             500 60         0.31312          9.2167 1;
 20107 100             500 60         0.21348         7.65489 1;
 20108 100             161 60        -0.39274         5.77684 1;
 20109 100             161 60         0.06983        -1.06289 1;
 20110 100             161 60         0.06003         0.53603 1;
 20111 100             161 60         0.03751         0.48454 1;
 20112 100             161 60           0.114           2.343 1;
 20113 100             161 60         0.07237        -1.98505 1;
 20114 100             161 60         0.06338         1.05989 1;
 20115 100            20.7 60        -1.19225        74.27733 1;
 20116 100             161 60         0.00997         2.64885 1;
 20117 100             161 60         0.01941        -0.17688 1;
 20118 100             500 60         0.55524         2.24541 1;
 20119 100             161 60         0.07659         3.45828 1;
 20120 100             500 60         0.21171           2.376 1;
 20121 100             161 60         0.11769         2.26937 1;
 20122 100             161 60         0.04722          4.9577 1;
 20123 100             161 60         0.11668         2.84402 1;
 20124 100             161 60         0.30261        -1.87357 1;
 20125 100             161 60        -0.00636         1.44906 1;
 20126 100             161 60        -0.02781         1.79193 1;
 20127 100             161 60         0.06907        -1.01428 1;
 20128 100             161 60        -0.01912         3.26563 1;
 20129 100             161 60         0.15404         1.04974 1;
 20130 100             161 60         0.02232         1.32329 1;
 20131 100             500 60         0.05573        18.64532 1;
 20132 100             138 60        -0.09705         2.00637 1;
 20133 100             138 60         0.01628         0.88451 1;
 20134 100             138 60          0.1259        -0.13446 1;
 20135 100             138 60         0.13343         0.01214 1;
 20136 100             138 60          0.1183        -0.37431 1;
 20137 100             230 60        -0.14303        10.65134 1;
 20138 100             138 60        -0.29654         3.25247 1;
 20139 100             345 60         0.26007        10.14671 1;
 20140 100             138 60        -0.23668         2.68406 1;
 20141 100             138 60         0.08951         1.31648 1;
 20142 100             138 60        -0.20356         1.90964 1;
 20143 100              18 60          8.3443        114.5372 1;
 20144 100             345 60         0.16757        10.13889 1;
 20145 100             345 60         0.12045         8.41334 1;
 20146 100             138 60         0.03485         0.99665 1;
 20147 100             765 60         0.68768         5.07617 1;
 20148 100             345 60          0.3054         3.63333 1;
 20149 100             345 60         0.29467         4.75564 1;
 20150 100             345 60        -0.07667         10.7071 1;
 20151 100             765 60         0.74659        -2.57101 1;
 20152 100             345 60        -0.10411         6.14607 1;
 20153 100             345 60         3.08749        76.89998 1;
 20154 100             345 60         0.27917         6.57382 1;
 20155 100             138 60          0.0065         1.36357 1;
 20156 100             138 60         0.03002         0.16643 1;
 20157 100             138 60         0.03658         2.28684 1;
 20158 100             138 60        -0.06751         1.25353 1;
 20159 100             138 60        -0.02847         2.69571 1;
 20160 100             138 60        -0.06255         1.20911 1;
 20161 100             138 60         0.09802        -0.25404 1;
 20162 100             138 60        -0.02976         0.83648 1;
 20163 100             138 60         0.25422         2.49851 1;
 20164 100             138 60         0.17702         4.02412 1;
 20165 100             138 60         0.08906         0.65219 1;
 20166 100              69 60         -0.0722         0.70653 1;
 20167 100              69 60        -0.01581         0.56515 1;
 20168 100              69 60         0.03076         0.60593 1;
 20169 100              69 60          0.0219         0.38665 1;
 20170 100             345 60        -0.01735         6.88099 1;
 20171 100             138 60        -0.13351         3.31653 1;
 20172 100             138 60         -0.2078         3.00475 1;
 20173 100             138 60         -0.0774         1.43522 1;
 20174 100              69 60        -0.07957          1.7983 1;
 20175 100              69 60        -0.08251         1.52711 1;
 20176 100              69 60        -0.03576          1.1907 1;
 20177 100             138 60           -0.13         2.57565 1;
 20178 100             138 60         0.04055         0.38506 1;
 20179 100             345 60         0.12376         0.49962 1;
 20180 100             138 60        -0.01198         4.13153 1;
 20181 100             138 60        -0.00849         0.47273 1;
 20182 100             138 60        -0.04438         0.70651 1;
 20183 100              69 60        -0.00872         1.44819 1;
 20184 100              69 60        -0.08282         0.63736 1;
 20185 100             138 60         0.01047         2.22465 1;
 20186 100             138 60          0.1292         1.42255 1;
 20187 100              69 60         -0.0962         2.23742 1;
 20188 100             345 60         0.26934        -0.90525 1;
 20189 100             138 60         -0.0875         4.89049 1;
 20190 100              69 60        -0.01536         0.46509 1;
 20191 100            20.9 60         0.46239        -7.46197 1;
 20192 100             345 60          0.1683         1.26908 1;
 20193 100              69 60        -0.01004         0.30551 1;
 20194 100             161 60         0.01011         0.48652 1;
 20195 100             161 60        -0.04589         3.72184 1;
 20196 100             345 60         0.17035         4.82515 1;
 20197 100              22 60         3.89688        -8.75475 1;
 20198 100             345 60        -0.10367         8.14134 1;
 20199 100             345 60         0.28726          5.6271 1;
 20200 100             138 60         -0.3902          1.6957 1;
 20201 100             138 60         0.06621         0.90187 1;
...
   ];

Line.con = [ ...
 20001  20002 100             500 60 0                0      0.00094148         0.02427               0               0               0               0               0               0  1;
 20001  20003 100             500 60 0                0       0.0018705        0.052461               0               0               0               0               0               0  1;
 20001  20004 100             500 60 0                0           4e-05         0.00115           0.081               0               0            26.6           31.45               0  1;
 20001  20005 100             500 60 0                0          0.0009          0.0214          1.5235               0               0            26.5           30.15               0  1;
 20001  20005 100             500 60 0                0       0.0051246        0.094249               0               0               0               0               0               0  1;
 20001  20021 100             500 60 0                0         0.00131         0.03385               0               0               0               0               0               0  1;
 20002  20003 100             500 60 0                0      0.00074954        0.020007               0               0               0               0               0               0  1;
 20002  20009 100             500 60 0                0       0.0016274        0.033047               0               0               0               0               0               0  1;
 20003  20004 100             500 60 0                0          0.0002          0.0042           0.305               0               0            26.6           30.15               0  1;
 20003  20007 100             500 60 0                0       0.0011426        0.028773               0               0               0               0               0               0  1;
 20003  20021 100             500 60 0                0         0.01933         0.39033               0               0               0               0               0               0  1;
 20004  20005 100             500 60 0                0       0.0027012        0.057641               0               0               0               0               0               0  1;
 20004  20007 100             500 60 0                0       0.0025296        0.053811               0               0               0               0               0               0  1;
 20005  20006 100             500 60 0                0         0.00119         0.02971          1.9671               0               0           23.81           30.13               0  1;
 20005  20006 100             500 60 0                0       0.0032906        0.062454               0               0               0               0               0               0  1;
 20005  20007 100             500 60 0                0       0.0014601        0.031365               0               0               0               0               0               0  1;
 20005  20008 100             500 60 0                0         0.01171         0.24598               0               0               0               0               0               0  1;
 20005  20020 100             500 60 0                0          1.4406          9.6035               0               0               0               0               0               0  1;
 20006  20008 100             500 60 0                0       0.0030478        0.057849               0               0               0               0               0               0  1;
 20006  20056 100             500 60 0                0       0.0055773         0.12634               0               0               0               0               0               0  1;
 20006  20131 100             500 60 0                0        0.016717         0.35574               0               0               0               0               0               0  1;
 20007  20008 100             500 60 0                0      0.00078467        0.018052               0               0               0               0               0               0  1;
 20007  20009 100             500 60 0                0      0.00098244        0.020275               0               0               0               0               0               0  1;
 20007  20131 100             500 60 0                0       0.0024359        0.068864               0               0               0               0               0               0  1;
 20008  20131 100             500 60 0                0       0.0047735         0.17726               0               0               0               0               0               0  1;
 20011  20014 100             230 60 0                0        0.010761        0.081281               0               0               0               0               0               0  1;
 20011  20015 100             230 60 0                0        0.028984          0.2316               0               0               0               0               0               0  1;
 20011  20020 100             230 60 0                0        0.039763         0.19605               0               0               0               0               0               0  1;
 20011  20137 100             230 60 0                0         0.23482          1.1853               0               0               0               0               0               0  1;
 20012  20013 100             115 60 0                0         0.74027          1.2859               0               0               0               0               0               0  1;
 20014  20022 100             230 60 0                0        0.048565         0.28696               0               0               0               0               0               0  1;
 20015  20016 100             230 60 0                0         0.00481          0.1215               0               0               0               0               0               0  1;
 20017  20020 100             230 60 0                0          0.0017          0.0197          0.0381               0               0            4.98            6.17               0  1;
 20017  20020 100             230 60 0                0        0.011113        0.076279               0               0               0               0               0               0  1;
 20017  20023 100             230 60 0                0        0.024236         0.19554               0               0               0               0               0               0  1;
 20017  20032 100             230 60 0                0        0.011355        0.078528               0               0               0               0               0               0  1;
 20019  20029 100             230 60 0                0       0.0021221        0.022925               0               0               0               0               0               0  1;
 20020  20021 100             230 60 0                0        0.037664         0.19792               0               0               0               0               0               0  1;
 20020  20023 100             230 60 0                0        0.020233         0.12268               0               0               0               0               0               0  1;
 20020  20023 100             230 60 0                0         0.00543          0.0459               0               0               0               0               0               0  1;
 20020  20032 100             230 60 0                0        0.026883         0.13925               0               0               0               0               0               0  1;
 20021  20022 100             230 60 0                0         0.34333          1.6652               0               0               0               0               0               0  1;
 20021  20023 100             230 60 0                0        0.013241        0.082563               0               0               0               0               0               0  1;
 20021  20025 100             230 60 0                0         0.13814          1.0045               0               0               0               0               0               0  1;
 20021  20028 100             230 60 0                0        0.029223         0.18446               0               0               0               0               0               0  1;
 20021  20029 100             230 60 0                0         0.12115         0.70221               0               0               0               0               0               0  1;
 20023  20032 100             230 60 0                0        0.025187         0.14391               0               0               0               0               0               0  1;
 20025  20028 100             230 60 0                0       0.0050259        0.038226               0               0               0               0               0               0  1;
 20025  20029 100             230 60 0                0         0.11064         0.73428               0               0               0               0               0               0  1;
 20025  20032 100             230 60 0                0        0.034703         0.44173               0               0               0               0               0               0  1;
 20027  20028 100              69 60 0                0          0.0016         0.13706               0               0               0               0               0               0  1;
 20028  20029 100             230 60 0                0        0.019281         0.11843               0               0               0               0               0               0  1;
 20028  20032 100             230 60 0                0         0.19792         0.96704               0               0               0               0               0               0  1;
 20033  20035 100             230 60 0                0         0.00014         0.00222         0.00841               0               0            7.97            7.97               0  1;
 20033  20035 100             230 60 0                0          0.0001         0.00139         0.00493               0               0            7.97            7.97               0  1;
 20033  20035 100             230 60 0                0         0.00015         0.00238         0.00918               0               0           11.95           11.95               0  1;
 20033  20035 100             230 60 0                0        0.016949          0.2894               0               0               0               0               0               0  1;
 20033  20038 100             230 60 0                0       0.0059591        0.075202               0               0               0               0               0               0  1;
 20034  20036 100             115 60 0                0        0.030009          0.2143               0               0               0               0               0               0  1;
 20034  20037 100             115 60 0                0         0.17424          1.4776               0               0               0               0               0               0  1;
 20035  20038 100             230 60 0                0       0.0015059         0.11155               0               0               0               0               0               0  1;
 20035  20039 100             230 60 0                0        0.018661         0.18725               0               0               0               0               0               0  1;
 20035  20048 100             230 60 0                0         0.14254         0.93961               0               0               0               0               0               0  1;
 20036  20037 100             115 60 0                0        0.006832        0.044813               0               0               0               0               0               0  1;
 20038  20039 100             230 60 0                0       0.0029904        0.041271               0               0               0               0               0               0  1;
 20038  20048 100             230 60 0                0         0.15889           1.494               0               0               0               0               0               0  1;
 20039  20048 100             230 60 0                0       0.0084591        0.065017               0               0               0               0               0               0  1;
 20040  20041 100             115 60 0                0         0.02478         0.17761               0               0               0               0               0               0  1;
 20043  20044 100             230 60 0                0         0.04121         0.32349               0               0               0               0               0               0  1;
 20043  20059 100             230 60 0                0        0.026022         0.29228               0               0               0               0               0               0  1;
 20043  20067 100             230 60 0                0         0.31461          1.8106               0               0               0               0               0               0  1;
 20044  20059 100             230 60 0                0       0.0024212        0.024564               0               0               0               0               0               0  1;
 20047  20137 100             230 60 0                0        0.002474        0.028595               0               0               0               0               0               0  1;
 20052  20053 100             500 60 0                0       0.0014604        0.032804               0               0               0               0               0               0  1;
 20052  20055 100             500 60 0                0       0.0026503        0.065669               0               0               0               0               0               0  1;
 20052  20057 100             500 60 0                0       0.0079725         0.23001               0               0               0               0               0               0  1;
 20053  20054 100             500 60 0                0        0.017683         0.31936               0               0               0               0               0               0  1;
...